.subckt 74HC00  A B Y	optional: DPWR=_G_DPWR DGND=_G_DGND	params: MNTYMXDLY=0 IO_LEVEL=0
U1 nand(2) DPWR DGND	A B   Y 	D_HC00 IO_HC MNTYMXDLY={MNTYMXDLY} IO_LEVEL={IO_LEVEL} 
.ends
.subckt 74HC01  A B Y	optional: DPWR=_G_DPWR DGND=_G_DGND	params: MNTYMXDLY=0 IO_LEVEL=0
U1 nand(2) DPWR DGND	A B   Y 	D_HC01 IO_HC_OC MNTYMXDLY={MNTYMXDLY} IO_LEVEL={IO_LEVEL} 
.ends
.subckt 74HC02  A B Y	optional: DPWR=_G_DPWR DGND=_G_DGND	params: MNTYMXDLY=0 IO_LEVEL=0
U1 nor(2) DPWR DGND	A B   Y 	D_HC02 IO_HC MNTYMXDLY={MNTYMXDLY} IO_LEVEL={IO_LEVEL} 
.ends
.subckt 74HC03  A B Y	optional: DPWR=_G_DPWR DGND=_G_DGND	params: MNTYMXDLY=0 IO_LEVEL=0
U1 nand(2) DPWR DGND	A B   Y 	D_HC03 IO_HC_OC MNTYMXDLY={MNTYMXDLY} IO_LEVEL={IO_LEVEL} 
.ends
.subckt 74HC04  A Y	optional: DPWR=_G_DPWR DGND=_G_DGND	params: MNTYMXDLY=0 IO_LEVEL=0
U1 inv DPWR DGND	A   Y 	D_H04C IO_HC MNTYMXDLY={MNTYMXDLY} IO_LEVEL={IO_LEVEL} 
.ends
.subckt 74HC05  A Y	optional: DPWR=_G_DPWR DGND=_G_DGND	params: MNTYMXDLY=0 IO_LEVEL=0
U1 inv DPWR DGND	A   Y 	D_HC05 IO_HC_OC MNTYMXDLY={MNTYMXDLY} IO_LEVEL={IO_LEVEL} 
.ends
.subckt 74HC08  A B Y	optional: DPWR=_G_DPWR DGND=_G_DGND	params: MNTYMXDLY=0 IO_LEVEL=0
U1 and(2) DPWR DGND	A B   Y 	D_HC08 IO_HC MNTYMXDLY={MNTYMXDLY} IO_LEVEL={IO_LEVEL} 
.ends
.subckt 74HC09  A B Y	optional: DPWR=_G_DPWR DGND=_G_DGND	params: MNTYMXDLY=0 IO_LEVEL=0
U1 and(2) DPWR DGND	A B   Y 	D_HC09 IO_HC_OC MNTYMXDLY={MNTYMXDLY} IO_LEVEL={IO_LEVEL} 
.ends
.subckt 74HC10  A B C Y	optional: DPWR=_G_DPWR DGND=_G_DGND	params: MNTYMXDLY=0 IO_LEVEL=0
U1 nand(3) DPWR DGND	A B C   Y 	D_HC10 IO_HC MNTYMXDLY={MNTYMXDLY} IO_LEVEL={IO_LEVEL} 
.ends
.subckt 74HC11  A B C Y	optional: DPWR=_G_DPWR DGND=_G_DGND	params: MNTYMXDLY=0 IO_LEVEL=0
U1 and(3) DPWR DGND	A B C   Y 	D_HC11 IO_HC MNTYMXDLY={MNTYMXDLY} IO_LEVEL={IO_LEVEL} 
.ends
.subckt 74HC14  A Y	optional: DPWR=_G_DPWR DGND=_G_DGND	params: MNTYMXDLY=0 IO_LEVEL=0
U1 inv DPWR DGND	A   Y 	D_HC14 IO_HC_ST MNTYMXDLY={MNTYMXDLY} IO_LEVEL={IO_LEVEL} 
.ends
.subckt 74HC20  A B C D Y	optional: DPWR=_G_DPWR DGND=_G_DGND	params: MNTYMXDLY=0 IO_LEVEL=0
U1 nand(4) DPWR DGND	A B C D   Y 	D_HC20 IO_HC MNTYMXDLY={MNTYMXDLY} IO_LEVEL={IO_LEVEL} 
.ends
.subckt 74HC21  A B C D Y	optional: DPWR=_G_DPWR DGND=_G_DGND	params: MNTYMXDLY=0 IO_LEVEL=0
U1 and(4) DPWR DGND	A B C D   Y 	D_HC21 IO_HC MNTYMXDLY={MNTYMXDLY} IO_LEVEL={IO_LEVEL} 
.ends
.subckt 74HC27  A B C Y	optional: DPWR=_G_DPWR DGND=_G_DGND	params: MNTYMXDLY=0 IO_LEVEL=0
U1 nor(3) DPWR DGND	A B C   Y 	D_HC27 IO_HC MNTYMXDLY={MNTYMXDLY} IO_LEVEL={IO_LEVEL} 
.ends
.subckt 74HC30  A B C D E F G H Y	optional: DPWR=_G_DPWR DGND=_G_DGND	params: MNTYMXDLY=0 IO_LEVEL=0
U1 nand(8) DPWR DGND	A B C D E F G H   Y 	D_HC30 IO_HC MNTYMXDLY={MNTYMXDLY} IO_LEVEL={IO_LEVEL} 
.ends
.subckt 74HC32  A B Y	optional: DPWR=_G_DPWR DGND=_G_DGND	params: MNTYMXDLY=0 IO_LEVEL=0
U1 or(2) DPWR DGND	A B   Y 	D_HC32 IO_HC MNTYMXDLY={MNTYMXDLY} IO_LEVEL={IO_LEVEL} 
.ends
.subckt 74HC35  A Y	optional: DPWR=_G_DPWR DGND=_G_DGND	params: MNTYMXDLY=0 IO_LEVEL=0
U1 buf DPWR DGND	A   Y 	D_HC35 IO_HC_OC MNTYMXDLY={MNTYMXDLY} IO_LEVEL={IO_LEVEL} 
.ends
.subckt 74HC36  A B Y	optional: DPWR=_G_DPWR DGND=_G_DGND	params: MNTYMXDLY=0 IO_LEVEL=0
U1 nor(2) DPWR DGND	A B   Y 	D_HC36 IO_HC MNTYMXDLY={MNTYMXDLY} IO_LEVEL={IO_LEVEL} 
.ends
.SUBCKT 74HC42   A_I B_I C_I D_I Y0_O Y1_O Y2_O Y3_O Y4_O Y5_O Y6_O Y7_O Y8_O Y9_O OPTIONAL: DPWR=_G_DPWR DGND=_G_DGND PARAMS: MNTYMXDLY=0 IO_LEVEL=0
UHC42LOG LOGICEXP (4,14) DPWR DGND A_I B_I C_I D_I A   B   C   D Y0 Y1 Y2 Y3 Y4 Y5 Y6 Y7 Y8 Y9 D0_GATE IO_HC IO_LEVEL={IO_LEVEL} LOGIC:   A    = { A_I }   B    = { B_I }   C    = { C_I }   D    = { D_I }   ABAR = { ~A }   BBAR = { ~B }   CBAR = { ~C }   DBAR = { ~D }   Y0   = { ~(DBAR & CBAR & BBAR & ABAR ) }   Y1   = { ~(DBAR & CBAR & BBAR & A    ) }   Y2   = { ~(DBAR & CBAR & B    & ABAR ) }   Y3   = { ~(DBAR & CBAR & B    & A    ) }   Y4   = { ~(DBAR & C    & BBAR & ABAR ) }   Y5   = { ~(DBAR & C    & BBAR & A    ) }   Y6   = { ~(DBAR & C    & B    & ABAR ) }   Y7   = { ~(DBAR & C    & B    & A    ) }   Y8   = { ~(D    & CBAR & BBAR & ABAR ) }   Y9   = { ~(D    & CBAR & BBAR & A    ) }
.ENDS
.subckt 74HC51  A1 B1 C1 D1 E1 F1 Y1 A2 B2 C2 D2 Y2	optional: DPWR=_G_DPWR DGND=_G_DGND	params: MNTYMXDLY=0 IO_LEVEL=0
U1 aoi(3,2) DPWR DGND	A1 B1 C1 D1 E1 F1   Y1 	D_HC51_1 IO_HC MNTYMXDLY={MNTYMXDLY} IO_LEVEL={IO_LEVEL} 
U2 aoi(2,2) DPWR DGND	A2 B2 C2 D2   Y2 	D_HC51_1 IO_HC MNTYMXDLY={MNTYMXDLY} IO_LEVEL={IO_LEVEL} 
.ends
.subckt 74HC73  CLK CLRBAR J K Q QBAR	optional: DPWR=_G_DPWR DGND=_G_DGND	params: MNTYMXDLY=0 IO_LEVEL=0
U1 jkff(1) DPWR DGND	_D_HI CLRBAR CLK   J K   Q QBAR 	D_HC73 IO_HC MNTYMXDLY={MNTYMXDLY} IO_LEVEL={IO_LEVEL} 
.ends
.subckt 74HC74  1CLRBAR 1D 1CLK 1PREBAR 1Q 1QBAR	optional: DPWR=_G_DPWR DGND=_G_DGND	params: MNTYMXDLY=0 IO_LEVEL=0
UFF1 dff(1) DPWR DGND	1PREBAR 1CLRBAR 1CLK   1D   1Q 1QBAR 	D_HC74 IO_HC MNTYMXDLY={MNTYMXDLY} IO_LEVEL={IO_LEVEL} 
.ends
.subckt 74HC75  1D 2D C 1Q 1QBAR 2Q 2QBAR	optional: DPWR=_G_DPWR DGND=_G_DGND	params: MNTYMXDLY=0 IO_LEVEL=0
UIBUF bufa(3) DPWR DGND	1D 2D C   1D_BUF 2D_BUF C_BUF 	D0_GATE IO_HC IO_LEVEL={IO_LEVEL} 
U12 dltch(2) DPWR DGND	_D_HI _D_HI C_BUF   1D_BUF 2D_BUF   1Q 2Q 1QBAR 2QBAR 	D_HC75_1 IO_HC MNTYMXDLY={MNTYMXDLY} IO_LEVEL={IO_LEVEL} 
.ends
.subckt 74HC76  CLK PREBAR CLRBAR J K Q QBAR	optional: DPWR=_G_DPWR DGND=_G_DGND	params: MNTYMXDLY=0 IO_LEVEL=0
U1 jkff(1) DPWR DGND	PREBAR CLRBAR CLK   J K   Q QBAR 	D_HC76 IO_HC MNTYMXDLY={MNTYMXDLY} IO_LEVEL={IO_LEVEL} 
.ends
.subckt 74HC78  CLK CLRBAR 1PREBAR 1J 1K 1Q 1QBAR 2PREBAR 2J 2K 2Q 2QBAR	optional: DPWR=_G_DPWR DGND=_G_DGND	params: MNTYMXDLY=0 IO_LEVEL=0
UIBUF bufa(4) DPWR DGND	CLK CLRBAR 1PREBAR 2PREBAR   CLK_BUF CLRBAR_BUF 1PREB 2PREB 	D0_GATE IO_HC IO_LEVEL={IO_LEVEL} 
U1 jkff(1) DPWR DGND	1PREB CLRBAR_BUF CLK_BUF   1J 1K   1Q 1QBAR 	D_HC78 IO_HC MNTYMXDLY={MNTYMXDLY} IO_LEVEL={IO_LEVEL} 
U2 jkff(1) DPWR DGND	2PREB CLRBAR_BUF CLK_BUF   2J 2K   2Q 2QBAR 	D_HC78 IO_HC MNTYMXDLY={MNTYMXDLY} IO_LEVEL={IO_LEVEL} 
.ends
.SUBCKT 74HC85A P3_I P2_I P1_I P0_I Q3_I Q2_I Q1_I Q0_I PGQ_I PEQ_I PLQ_I YPGQ_O YPEQ_O YPLQ_O OPTIONAL: DPWR=_G_DPWR DGND=_G_DGND PARAMS: MNTYMXDLY=0 IO_LEVEL=0
UHC85ALOG LOGICEXP(11,14) DPWR DGND P3_I P2_I P1_I P0_I Q3_I Q2_I Q1_I Q0_I PGQ_I PEQ_I PLQ_I P3   P2   P1   P0   Q3   Q2   Q1   Q0   PGQ   PEQ   PLQ YPGQ YPEQ YPLQ D0_GATE IO_HC IO_LEVEL={IO_LEVEL} LOGIC:   P3     = { P3_I }   P2     = { P2_I }   P1     = { P1_I }   P0     = { P0_I }   Q3     = { Q3_I }   Q2     = { Q2_I }   Q1     = { Q1_I }   Q0     = { Q0_I }   PGQ    = { PGQ_I }   PEQ    = { PEQ_I }   PLQ    = { PLQ_I }   C3     = { ~(P3 & Q3) }   C2     = { ~(P2 & Q2) }   C1     = { ~(P1 & Q1) }   C0     = { ~(P0 & Q0) }   P3C3    = { P3 & C3 }   P2C2    = { P2 & C2 }   P1C1    = { P1 & C1 }   P0C0    = { P0 & C0 }   Q3C3    = { Q3 & C3 }   Q2C2    = { Q2 & C2 }   Q1C1    = { Q1 & C1 }   Q0C0    = { Q0 & C0 }   D3      = { ~(P3C3 | Q3C3) }   D2      = { ~(P2C2 | Q2C2) }   D1      = { ~(P1C1 | Q1C1) }   D0      = { ~(P0C0 | Q0C0) }   D32     = { D3 & D2 }   D31     = { D32 & D1 }   D30     = { D31 & D0 }   YPGQ  = { ~Q3C3 & ~(Q2C2 & D3) & ~(Q1C1 & D32) & ~(Q0C0 & D31) &             ~(PLQ & D30) & ~(PEQ & D30) }   YPEQ  = { D30 & PEQ }   YPLQ  = { ~(PEQ & D30) & ~(PGQ & D30) & ~(P0C0 & D31) & ~(P1C1 & D32) &             ~(P2C2 & D3) & ~P3C3 }
.ENDS
.subckt 74HC86  A B Y	optional: DPWR=_G_DPWR DGND=_G_DGND	params: MNTYMXDLY=0 IO_LEVEL=0
U1 xor DPWR DGND	A B   Y 	D_HC86 IO_HC MNTYMXDLY={MNTYMXDLY} IO_LEVEL={IO_LEVEL} 
.ends
.SUBCKT 74HC93   CKA_I CKB_I R01_I R02_I   QA_O QB_O QC_O QD_O OPTIONAL: DPWR=_G_DPWR DGND=_G_DGND PARAMS: MNTYMXDLY=0 IO_LEVEL=0
U1 JKFF(1) DPWR DGND _D_HI CLRBAR CKA   _D_HI _D_HI     QA _D_NC D0_EFF  IO_HC
U2 JKFF(1) DPWR DGND _D_HI CLRBAR CKB   _D_HI _D_HI     QB _D_NC  D0_EFF  IO_HC
U3 JKFF(1) DPWR DGND _D_HI CLRBAR QB    _D_HI _D_HI     QC _D_NC  D0_EFF  IO_HC
U4 JKFF(1) DPWR DGND _D_HI CLRBAR QC    _D_HI _D_HI     QD _D_NC  D0_EFF  IO_HC
U5 BUFA(4) DPWR DGND CKA_I CKB_I R01_I R02_I   CKA CKB R01 R02 D0_GATE IO_HC IO_LEVEL={IO_LEVEL} 
U6 NAND(2) DPWR DGND R01 R02   CLRBAR  D0_GATE IO_HC IO_LEVEL={IO_LEVEL} 
.ENDS
.SUBCKT 74HC95   MODE_I CLK1_I CLK2_I SER_I A_I B_I C_I D_I QA_O QB_O QC_O QD_O OPTIONAL: DPWR=_G_DPWR   DGND=_G_DGND PARAMS:   MNTYMXDLY=0    IO_LEVEL=0
UHC95LOG LOGICEXP(11,13) DPWR DGND MODE_I CLK1_I CLK2_I SER_I A_I B_I C_I D_I QA QB QC MODE CLK1 CLK2 SER A B C D CLK DA DB DC DD D0_GATE IO_HC IO_LEVEL={IO_LEVEL} LOGIC:   MODE = { MODE_I }   CLK1 = { CLK1_I }   CLK2 = { CLK2_I }   SER = { SER_I }   A   = { A_I }   B   = { B_I }   C   = { C_I }   D   = { D_I }   MODEBAR = { ~MODE }   CLK = { ~((MODEBAR  & CLK1) | (MODE  & CLK2)) }   DA  = { (MODEBAR  & SER)    | (MODE  & A) }   DB  = { (MODEBAR  & QA) | (MODE  & B) }   DC  = { (MODEBAR  & QB) | (MODE  & C) }   DD  = { (MODEBAR  & QC) | (MODE  & D) }
U1 DFF(4) DPWR DGND _D_HI _D_HI CLK DA DB DC DD QA QB QC QD _D_NC _D_NC _D_NC _D_NC D0_EFF  IO_HC
.ENDS
.subckt 74HC107  CLK CLRBAR J K Q QBAR	optional: DPWR=_G_DPWR DGND=_G_DGND	params: MNTYMXDLY=0 IO_LEVEL=0
U1 jkff(1) DPWR DGND	_D_HI CLRBAR CLK   J K   Q QBAR 	D_HC107 IO_HC MNTYMXDLY={MNTYMXDLY} IO_LEVEL={IO_LEVEL} 
.ends
.subckt 74HC109  CLK PREBAR CLRBAR J KBAR Q QBAR	optional: DPWR=_G_DPWR DGND=_G_DGND	params: MNTYMXDLY=0 IO_LEVEL=0
U1 jkff(1) DPWR DGND	PREBAR CLRBAR CLKBAR   J K   Q QBAR 	D_HC109 IO_HC MNTYMXDLY={MNTYMXDLY} IO_LEVEL={IO_LEVEL} 
U2 inva(2) DPWR DGND	KBAR CLK   K CLKBAR 	D0_GATE IO_HC IO_LEVEL={IO_LEVEL} 
.ends
.subckt 74HC112  CLK PREBAR CLRBAR J K Q QBAR	optional: DPWR=_G_DPWR DGND=_G_DGND	params: MNTYMXDLY=0 IO_LEVEL=0
U1 jkff(1) DPWR DGND	PREBAR CLRBAR CLK   J K   Q QBAR 	D_HC112 IO_HC MNTYMXDLY={MNTYMXDLY} IO_LEVEL={IO_LEVEL} 
.ends
.subckt 74HC113  CLK PREBAR J K Q QBAR	optional: DPWR=_G_DPWR DGND=_G_DGND	params: MNTYMXDLY=0 IO_LEVEL=0
U1 jkff(1) DPWR DGND	PREBAR _D_HI CLK   J K   Q QBAR 	D_HC113 IO_HC MNTYMXDLY={MNTYMXDLY} IO_LEVEL={IO_LEVEL} 
.ends
.subckt 74HC114  CLK CLRBAR 1PREBAR 1J 1K 1Q 1QBAR 2PREBAR 2J 2K 2Q 2QBAR	optional: DPWR=_G_DPWR DGND=_G_DGND	params: MNTYMXDLY=0 IO_LEVEL=0
UIBUF bufa(4) DPWR DGND	CLK CLRBAR 1PREBAR 2PREBAR   CLK_BUF CLRBAR_BUF 1PREB 2PREB 	D0_GATE IO_HC IO_LEVEL={IO_LEVEL} 
U1 jkff(1) DPWR DGND	1PREB CLRBAR_BUF CLK_BUF   1J 1K   1Q 1QBAR 	D_HC114 IO_HC MNTYMXDLY={MNTYMXDLY} IO_LEVEL={IO_LEVEL} 
U2 jkff(1) DPWR DGND	2PREB CLRBAR_BUF CLK_BUF   2J 2K   2Q 2QBAR 	D_HC114 IO_HC MNTYMXDLY={MNTYMXDLY} IO_LEVEL={IO_LEVEL} 
.ends
.subckt 74HC125  A GBAR Y	optional: DPWR=_G_DPWR DGND=_G_DGND	params: MNTYMXDLY=0 IO_LEVEL=0
U1 buf3 DPWR DGND	A   G   Y 	D_HC125 IO_HC_BUS MNTYMXDLY={MNTYMXDLY} IO_LEVEL={IO_LEVEL} 
U2 inv DPWR DGND	GBAR   G 	D0_GATE IO_HC IO_LEVEL={IO_LEVEL} 
.ends
.subckt 74HC126  A G Y	optional: DPWR=_G_DPWR DGND=_G_DGND	params: MNTYMXDLY=0 IO_LEVEL=0
U1 buf3 DPWR DGND	A   G   Y 	D_HC126 IO_HC_BUS MNTYMXDLY={MNTYMXDLY} IO_LEVEL={IO_LEVEL} 
.ends
.subckt 74HC132  A B Y	optional: DPWR=_G_DPWR DGND=_G_DGND	params: MNTYMXDLY=0 IO_LEVEL=0
U1 nand(2) DPWR DGND	A B   Y 	D_HC132 IO_HC_ST MNTYMXDLY={MNTYMXDLY} IO_LEVEL={IO_LEVEL} 
.ends
.subckt 74HC133  A B C D E F G H I J K L M Y	optional: DPWR=_G_DPWR DGND=_G_DGND	params: MNTYMXDLY=0 IO_LEVEL=0
U1 nand(13) DPWR DGND	A	B	C	D	E	F	G	H	I	J	K	L	M	Y	D_HC133 IO_HC MNTYMXDLY={MNTYMXDLY} IO_LEVEL={IO_LEVEL} 
.ends
.SUBCKT 74HC137   G1_I G2BAR_I GLBAR_I A_I B_I C_I Y0_O Y1_O Y2_O Y3_O Y4_O Y5_O Y6_O Y7_O OPTIONAL: DPWR=_G_DPWR DGND=_G_DGND PARAMS: MNTYMXDLY=0 IO_LEVEL=0
U1 DLTCH(3) DPWR DGND _D_HI _D_HI LATCHEN  A     B     C QA    QB    QC QABAR QBBAR QCBAR D0_GFF  IO_HC
UHC137LOG LOGICEXP (12,14) DPWR DGND G1_I G2BAR_I GLBAR_I A_I B_I C_I QA QB QC QABAR QBBAR QCBAR              GLBAR   A   B   C   LATCHEN ENABLE Y0 Y1 Y2 Y3 Y4 Y5 Y6 Y7 D0_GATE IO_HC IO_LEVEL={IO_LEVEL} LOGIC:   G1      = { G1_I }   G2BAR   = { G2BAR_I }   GLBAR   = { GLBAR_I }   A       = { A_I }   B       = { B_I }   C       = { C_I }   LATCHEN = { ~GLBAR }   ENABLE  = { G1 & ~G2BAR }   Y0      = { ~(ENABLE & QCBAR & QBBAR & QABAR) }   Y1      = { ~(ENABLE & QCBAR & QBBAR & QA   ) }   Y2      = { ~(ENABLE & QCBAR & QB    & QABAR) }   Y3      = { ~(ENABLE & QCBAR & QB    & QA   ) }   Y4      = { ~(ENABLE & QC    & QBBAR & QABAR) }   Y5      = { ~(ENABLE & QC    & QBBAR & QA   ) }   Y6      = { ~(ENABLE & QC    & QB    & QABAR) }   Y7      = { ~(ENABLE & QC    & QB    & QA   ) }
.ENDS
.SUBCKT 74HC138   G1_I G2ABAR_I G2BBAR_I A_I B_I C_I Y0_O Y1_O Y2_O Y3_O Y4_O Y5_O Y6_O Y7_O OPTIONAL: DPWR=_G_DPWR DGND=_G_DGND PARAMS: MNTYMXDLY=0 IO_LEVEL=0
UHC138LOG LOGICEXP (6,9) DPWR DGND G1_I G2ABAR_I G2BBAR_I A_I B_I C_I ENABLE Y0 Y1 Y2 Y3 Y4 Y5 Y6 Y7 D0_GATE IO_HC IO_LEVEL={IO_LEVEL} LOGIC:   G1     = { G1_I }   G2ABAR = { G2ABAR_I }   G2BBAR = { G2BBAR_I }   A      = { A_I }   B      = { B_I }   C      = { C_I }   ABAR   = { ~A }   BBAR   = { ~B }   CBAR   = { ~C }   ENABLE = { ~G2ABAR & ~G2BBAR & G1 }   Y0     = { ~(ENABLE & CBAR & BBAR & ABAR) }   Y1     = { ~(ENABLE & CBAR & BBAR & A   ) }   Y2     = { ~(ENABLE & CBAR & B    & ABAR) }   Y3     = { ~(ENABLE & CBAR & B    & A   ) }   Y4     = { ~(ENABLE & C    & BBAR & ABAR) }   Y5     = { ~(ENABLE & C    & BBAR & A   ) }   Y6     = { ~(ENABLE & C    & B    & ABAR) }   Y7     = { ~(ENABLE & C    & B    & A   ) }
.ENDS
.SUBCKT 74HC139   GBAR_I A_I B_I   Y0_O Y1_O Y2_O Y3_O OPTIONAL: DPWR=_G_DPWR DGND=_G_DGND PARAMS: MNTYMXDLY=0 IO_LEVEL=0
UHC139LOG LOGICEXP (3,7) DPWR DGND GBAR_I A_I B_I GBAR   A   B Y0 Y1 Y2 Y3 D0_GATE IO_HC IO_LEVEL={IO_LEVEL} LOGIC:   GBAR   = { GBAR_I }   A      = { A_I }   B      = { B_I }   ABAR   = { ~A }   BBAR   = { ~B }   ENABLE = { ~GBAR }   Y0     = { ~(ENABLE & BBAR & ABAR ) }   Y1     = { ~(ENABLE & BBAR & A    ) }   Y2     = { ~(ENABLE & B    & ABAR ) }   Y3     = { ~(ENABLE & B    & A    ) }
.ENDS
.SUBCKT 74HC147   IN1_I IN2_I IN3_I IN4_I IN5_I IN6_I IN7_I IN8_I IN9_I A_O B_O C_O D_O OPTIONAL: DPWR=_G_DPWR DGND=_G_DGND PARAMS: MNTYMXDLY=0 IO_LEVEL=0
UHC147LOG LOGICEXP (9,13) DPWR DGND IN1_I IN2_I IN3_I IN4_I IN5_I IN6_I IN7_I IN8_I IN9_I IN1   IN2   IN3   IN4   IN5   IN6   IN7   IN8   IN9 A B C D D0_GATE IO_HC IO_LEVEL={IO_LEVEL} LOGIC: IN1    = { IN1_I } IN2    = { IN2_I } IN3    = { IN3_I } IN4    = { IN4_I } IN5    = { IN5_I } IN6    = { IN6_I } IN7    = { IN7_I } IN8    = { IN8_I } IN9    = { IN9_I } IN1BAR = { ~IN1 } IN2BAR = { ~IN2 } IN3BAR = { ~IN3 } IN4BAR = { ~IN4 } IN5BAR = { ~IN5 } IN6BAR = { ~IN6 } IN7BAR = { ~IN7 } IN8BAR = { ~IN8 } IN9BAR = { ~IN9 } D      = { IN8 & IN9 } C      = { ~(D & (IN4BAR | IN5BAR | IN6BAR | IN7BAR)) } B      = { ~(D & ((IN2BAR & IN4 & IN5) |                       (IN3BAR & IN4 & IN5) | IN6BAR | IN7BAR)) } A      = { ~(IN9BAR | D & ((IN1BAR & IN2 & IN4 & IN6) |                       (IN3BAR & IN4 & IN6) | (IN5BAR & IN6) | IN7BAR)) }
.ENDS
.SUBCKT 74HC148   IN0_I IN1_I IN2_I IN3_I IN4_I IN5_I IN6_I IN7_I EI_I A0_O A1_O A2_O GS_O EO_O OPTIONAL: DPWR=_G_DPWR DGND=_G_DGND PARAMS: MNTYMXDLY=0 IO_LEVEL=0
UHC148LOG LOGICEXP (9,14) DPWR DGND IN0_I IN1_I IN2_I IN3_I IN4_I IN5_I IN6_I IN7_I EI_I IN0   IN1   IN2   IN3   IN4   IN5   IN6   IN7   EI A0 A1 A2 GS EO D0_GATE IO_HC IO_LEVEL={IO_LEVEL} LOGIC: IN0    = { IN0_I } IN1    = { IN1_I } IN2    = { IN2_I } IN3    = { IN3_I } IN4    = { IN4_I } IN5    = { IN5_I } IN6    = { IN6_I } IN7    = { IN7_I } EI     = { EI_I } IN0BAR = { ~IN0 } IN1BAR = { ~IN1 } IN2BAR = { ~IN2 } IN3BAR = { ~IN3 } IN4BAR = { ~IN4 } IN5BAR = { ~IN5 } IN6BAR = { ~IN6 } IN7BAR = { ~IN7 } EIBAR  = { ~EI } A0     = { ~(EIBAR & ((IN1BAR & IN2 & IN4 & IN6) |                       (IN3BAR & IN4 & IN6) | (IN5BAR & IN6) | IN7BAR)) } A1     = { ~(EIBAR & ((IN2BAR & IN4 & IN5) |                       (IN3BAR & IN4 & IN5) | IN6BAR | IN7BAR)) } A2     = { ~(EIBAR & (IN4BAR | IN5BAR | IN6BAR | IN7BAR)) } EO     = { ~(IN0 & IN1 & IN2 & IN3 & IN4 & IN5 & IN6 & IN7 & EIBAR) } GS     = { ~(EO & EIBAR) }
.ENDS
.SUBCKT 74HC151 GBAR_I A_I B_I C_I D0_I D1_I D2_I D3_I D4_I D5_I D6_I D7_I Y_O W_O OPTIONAL: DPWR=_G_DPWR DGND=_G_DGND PARAMS: MNTYMXDLY=0 IO_LEVEL=0
UHC151LOG LOGICEXP(12,14) DPWR DGND GBAR_I A_I B_I C_I D0_I D1_I D2_I D3_I D4_I D5_I D6_I D7_I GBAR A B C D0 D1 D2 D3 D4 D5 D6 D7 W Y D0_GATE IO_HC IO_LEVEL={IO_LEVEL} LOGIC:   GBAR = { GBAR_I }   A = { A_I }   B = { B_I }   C = { C_I }   D0 = { D0_I }   D1 = { D1_I }   D2 = { D2_I }   D3 = { D3_I }   D4 = { D4_I }   D5 = { D5_I }   D6 = { D6_I }   D7 = { D7_I }   IA = { ~A }   IB = { ~B }   IC = { ~C }   IG = { ~GBAR }   ID0 = { D0 & IA & IB & IC & IG }   ID1 = { D1 & A & IB & IC & IG }   ID2 = { D2 & IA & B & IC & IG }   ID3 = { D3 & A & B & IC & IG }   ID4 = { D4 & IA & IB & C & IG }   ID5 = { D5 & A & IB & C & IG }   ID6 = { D6 & IA & B & C & IG }   ID7 = { D7 & A & B & C & IG }   W = { ~(ID0 | ID1 | ID2 | ID3 | ID4 | ID5 | ID6 | ID7) }   Y = { ~W }
.ENDS
.SUBCKT 74HC152 A_I B_I C_I D0_I D1_I D2_I D3_I D4_I D5_I D6_I D7_I W_O OPTIONAL: DPWR=_G_DPWR DGND=_G_DGND PARAMS: MNTYMXDLY=0 IO_LEVEL=0
UHC152LOG LOGICEXP(11,12) DPWR DGND A_I B_I C_I D0_I D1_I D2_I D3_I D4_I D5_I D6_I D7_I A B C D0 D1 D2 D3 D4 D5 D6 D7 W D0_GATE IO_HC IO_LEVEL={IO_LEVEL} LOGIC:   A = { A_I }   B = { B_I }   C = { C_I }   D0 = { D0_I }   D1 = { D1_I }   D2 = { D2_I }   D3 = { D3_I }   D4 = { D4_I }   D5 = { D5_I }   D6 = { D6_I }   D7 = { D7_I }   IA = { ~A }   IB = { ~B }   IC = { ~C }   ID0 = { D0 & IA & IB & IC }   ID1 = { D1 & A & IB & IC }   ID2 = { D2 & IA & B & IC }   ID3 = { D3 & A & B & IC }   ID4 = { D4 & IA & IB & C }   ID5 = { D5 & A & IB & C }   ID6 = { D6 & IA & B & C }   ID7 = { D7 & A & B & C }   W = { ~(ID0 | ID1 | ID2 | ID3 | ID4 | ID5 | ID6 | ID7) }
.ENDS
.SUBCKT 74HC153 G1BAR_I G2BAR_I A_I B_I 1C0_I 1C1_I 1C2_I  1C3_I 2C0_I 2C1_I 2C2_I 2C3_I Y1_O Y2_O OPTIONAL: DPWR=_G_DPWR DGND=_G_DGND PARAMS: MNTYMXDLY=0 IO_LEVEL=0
UHC153LOG LOGICEXP(12,14) DPWR DGND G1BAR_I G2BAR_I A_I B_I 1C0_I 1C1_I 1C2_I 1C3_I 2C0_I 2C1_I 2C2_I 2C3_I G1BAR G2BAR A B 1C0 1C1 1C2  1C3 2C0 2C1 2C2 2C3 Y1 Y2 D0_GATE IO_HC IO_LEVEL={IO_LEVEL} LOGIC:   G1BAR = { G1BAR_I }   G2BAR = { G2BAR_I }   A = { A_I }   B = { B_I }   1C0 = { 1C0_I }   1C1 = { 1C1_I }   1C2 = { 1C2_I }   1C3 = { 1C3_I }   2C0 = { 2C0_I }   2C1 = { 2C1_I }   2C2 = { 2C2_I }   2C3 = { 2C3_I }   G1 = { ~G1BAR }   G2 = { ~G2BAR }   ABAR = { ~A }   BBAR = { ~B }   I0 = { G1 & BBAR & ABAR & 1C0 }   I1 = { G1 & BBAR & A    & 1C1 }   I2 = { G1 & B    & ABAR & 1C2 }   I3 = { G1 & B    & A    & 1C3 }   I4 = { G2 & BBAR & ABAR & 2C0 }   I5 = { G2 & BBAR & A    & 2C1 }   I6 = { G2 & B    & ABAR & 2C2 }   I7 = { G2 & B    & A    & 2C3 }   Y1 = { I0 | I1 | I2 | I3 }   Y2 = { I4 | I5 | I6 | I7 }
.ENDS
.SUBCKT 74HC154   G1BAR_I G2BAR_I A_I B_I C_I D_I Y0_O Y1_O  Y2_O  Y3_O  Y4_O  Y5_O  Y6_O  Y7_O Y8_O Y9_O Y10_O Y11_O Y12_O Y13_O Y14_O Y15_O OPTIONAL: DPWR=_G_DPWR DGND=_G_DGND PARAMS: MNTYMXDLY=0 IO_LEVEL=0
UHC154LOG LOGICEXP (6,21) DPWR DGND G1BAR_I G2BAR_I A_I B_I C_I D_I ENABLE          A   B   C   D Y0 Y1 Y2 Y3 Y4 Y5 Y6 Y7 Y8 Y9 Y10 Y11 Y12 Y13 Y14 Y15 D0_GATE IO_HC IO_LEVEL={IO_LEVEL} LOGIC:   G1BAR  = { G1BAR_I }   G2BAR  = { G2BAR_I }   ENABLE = { ~(G1BAR | G2BAR) }   A      = { A_I }   B      = { B_I }   C      = { C_I }   D      = { D_I }   ABAR   = { ~A }   BBAR   = { ~B }   CBAR   = { ~C }   DBAR   = { ~D }   Y0     = { ~(ENABLE & DBAR & CBAR & BBAR & ABAR) }   Y1     = { ~(ENABLE & DBAR & CBAR & BBAR & A   ) }   Y2     = { ~(ENABLE & DBAR & CBAR & B    & ABAR) }   Y3     = { ~(ENABLE & DBAR & CBAR & B    & A   ) }   Y4     = { ~(ENABLE & DBAR & C    & BBAR & ABAR) }   Y5     = { ~(ENABLE & DBAR & C    & BBAR & A   ) }   Y6     = { ~(ENABLE & DBAR & C    & B    & ABAR) }   Y7     = { ~(ENABLE & DBAR & C    & B    & A   ) }   Y8     = { ~(ENABLE & D    & CBAR & BBAR & ABAR) }   Y9     = { ~(ENABLE & D    & CBAR & BBAR & A   ) }   Y10    = { ~(ENABLE & D    & CBAR & B    & ABAR) }   Y11    = { ~(ENABLE & D    & CBAR & B    & A   ) }   Y12    = { ~(ENABLE & D    & C    & BBAR & ABAR) }   Y13    = { ~(ENABLE & D    & C    & BBAR & A   ) }   Y14    = { ~(ENABLE & D    & C    & B    & ABAR) }   Y15    = { ~(ENABLE & D    & C    & B    & A   ) }
.ENDS
.SUBCKT 74HC155   G1BAR_I G2BAR_I A_I B_I C1_I C2BAR_I 1Y0_O 1Y1_O 1Y2_O 1Y3_O 2Y0_O 2Y1_O 2Y2_O 2Y3_O OPTIONAL: DPWR=_G_DPWR DGND=_G_DGND PARAMS: MNTYMXDLY=0 IO_LEVEL=0
UHC155LOG LOGICEXP (6,14) DPWR DGND G1BAR_I G2BAR_I A_I B_I C1_I C2BAR_I         G2BAR   A   B   C2BAR      ENABLE1 ENABLE2 1Y0 1Y1 1Y2 1Y3 2Y0 2Y1 2Y2 2Y3 D0_GATE IO_HC IO_LEVEL={IO_LEVEL} LOGIC:   G1BAR   = { G1BAR_I }   G2BAR   = { G2BAR_I }   A       = { A_I }   B       = { B_I }   C1      = { C1_I }   C2BAR   = { C2BAR_I }   ABAR    = { ~A }   BBAR    = { ~B }   ENABLE1 = { ~G1BAR &  C1 }   ENABLE2 = { ~G2BAR & ~C2BAR }   1Y0     = { ~(ENABLE1 & BBAR & ABAR) }   1Y1     = { ~(ENABLE1 & BBAR & A   ) }   1Y2     = { ~(ENABLE1 & B    & ABAR) }   1Y3     = { ~(ENABLE1 & B    & A   ) }   2Y0     = { ~(ENABLE2 & BBAR & ABAR) }   2Y1     = { ~(ENABLE2 & BBAR & A   ) }   2Y2     = { ~(ENABLE2 & B    & ABAR) }   2Y3     = { ~(ENABLE2 & B    & A   ) }
.ENDS
.SUBCKT 74HC157 GBAR_I 1A_I 1B_I 2A_I 2B_I 3A_I 3B_I 4A_I 4B_I SEL_I Y1_O Y2_O Y3_O Y4_O OPTIONAL: DPWR=_G_DPWR DGND=_G_DGND PARAMS: MNTYMXDLY=0 IO_LEVEL=0
UHC157LOG LOGICEXP(10,14) DPWR DGND GBAR_I 1A_I 1B_I 2A_I 2B_I 3A_I 3B_I 4A_I 4B_I SEL_I GBAR 1A 1B 2A 2B 3A 3B 4A 4B SEL Y1 Y2 Y3 Y4 D0_GATE IO_HC IO_LEVEL={IO_LEVEL} LOGIC:   GBAR = { GBAR_I }   1A = { 1A_I }   1B = { 1B_I }   2A = { 2A_I }   2B = { 2B_I }   3A = { 3A_I }   3B = { 3B_I }   4A = { 4A_I }   4B = { 4B_I }   SEL = { SEL_I }   SEL1 = { ~GBAR & ~SEL }   SEL2 = { ~GBAR &  SEL }   Y1 = { (1A & SEL1) | (1B & SEL2) }   Y2 = { (2A & SEL1) | (2B & SEL2) }   Y3 = { (3A & SEL1) | (3B & SEL2) }   Y4 = { (4A & SEL1) | (4B & SEL2) }
.ENDS
.SUBCKT 74HC158 GBAR_I 1A_I 1B_I 2A_I 2B_I 3A_I 3B_I 4A_I 4B_I SEL_I Y1_O Y2_O Y3_O Y4_O OPTIONAL: DPWR=_G_DPWR DGND=_G_DGND PARAMS: MNTYMXDLY=0 IO_LEVEL=0
UHC158LOG LOGICEXP(10,14) DPWR DGND GBAR_I 1A_I 1B_I 2A_I 2B_I 3A_I 3B_I 4A_I 4B_I SEL_I GBAR 1A 1B 2A 2B 3A 3B 4A 4B SEL Y1 Y2 Y3 Y4 D0_GATE IO_HC IO_LEVEL={IO_LEVEL} LOGIC:   GBAR = { GBAR_I }   1A = { 1A_I }   1B = { 1B_I }   2A = { 2A_I }   2B = { 2B_I }   3A = { 3A_I }   3B = { 3B_I }   4A = { 4A_I }   4B = { 4B_I }   SEL = { SEL_I }   SEL1 = { ~GBAR & ~SEL }   SEL2 = { ~GBAR &  SEL }   Y1 = { ~((1A & SEL1) | (1B & SEL2)) }   Y2 = { ~((2A & SEL1) | (2B & SEL2)) }   Y3 = { ~((3A & SEL1) | (3B & SEL2)) }   Y4 = { ~((4A & SEL1) | (4B & SEL2)) }
.ENDS
.SUBCKT 74HC160  CLK_I ENP_I ENT_I CLRBAR_I LOADBAR_I A_I B_I C_I D_I QA_O QB_O QC_O QD_O RCO_O OPTIONAL: DPWR=_G_DPWR DGND=_G_DGND PARAMS: MNTYMXDLY=0 IO_LEVEL=0
UHC160LOG LOGICEXP(15,15) DPWR DGND CLK_I ENP_I ENT_I CLRBAR_I LOADBAR_I A_I B_I C_I D_I QA QD QABAR QBBAR QCBAR QDBAR CLK ENP ENT CLRBAR LOADBAR A B C D RCO DA DB DC DD EN D0_GATE IO_HC IO_LEVEL={IO_LEVEL} LOGIC:   CLK = { CLK_I }                        ENP = { ENP_I }   ENT = { ENT_I }   CLRBAR = { CLRBAR_I }   LOADBAR = { LOADBAR_I }   A = { A_I }   B = { B_I }   C = { C_I }   D = { D_I }   LOAD = { ~LOADBAR }                  EN = { ~(ENP & ENT) }   DA = { (A & LOAD) | (LOADBAR & ~(QABAR ^ ~EN)) }   IB1 = { ~(EN | QABAR | QD) }   DB = { (B & LOAD) | (LOADBAR & ~(IB1 ^ QBBAR)) }   IC1 = { ~(EN | QABAR | QBBAR) }   DC = { (C & LOAD) | (LOADBAR & ~(IC1 ^ QCBAR)) }   ID1 = { ~(EN | QABAR | QBBAR | QCBAR) }   ID2 = { ~(EN | ~(QDBAR | QA)) }   DD = { (D & LOAD ) | ( LOADBAR & ((QDBAR & ID1) | ~(QDBAR | ID2))) }   RCO = { ENT & QA & QBBAR & QCBAR & QD }
UDFF DFF(4) DPWR DGND _D_HI CLRBAR CLK DA DB DC DD QA QB QC QD QABAR QBBAR QCBAR QDBAR D0_EFF IO_HC
.ENDS
.SUBCKT 74HC161 CLK_I ENP_I ENT_I CLRBAR_I LOADBAR_I A_I B_I C_I D_I QA_O QB_O QC_O QD_O RCO_O OPTIONAL: DPWR=_G_DPWR DGND=_G_DGND PARAMS: MNTYMXDLY=0 IO_LEVEL=0
U1 DFF(4) DPWR DGND _D_HI CLRBAR CLK DA DB DC DD QA QB QC QD QABAR QBBAR QCBAR QDBAR D0_EFF IO_HC
UHC161LOG LOGICEXP(17,15) DPWR DGND CLK_I ENP_I ENT_I CLRBAR_I LOADBAR_I A_I B_I C_I D_I QA QB QC QD QABAR QBBAR QCBAR QDBAR CLK ENP ENT CLRBAR LOADBAR A B C D RCO DA DB DC DD IEN D0_GATE IO_HC IO_LEVEL={IO_LEVEL} LOGIC:   CLK = { CLK_I }   ENP = { ENP_I }   ENT = { ENT_I }   CLRBAR = { CLRBAR_I }   LOADBAR = { LOADBAR_I }   A = { A_I }   B = { B_I }   C = { C_I }   D = { D_I }   IEN = { ~(ENT & ENP) }   ILD = { ~LOADBAR }   IA1 = { A & ILD }   IA2 = { ~(~IEN ^ QABAR) & LOADBAR }   IB1 = { B & ILD }   IB2 = { ~(~(IEN | QABAR) ^ QBBAR) & LOADBAR }   IC1 = { C & ILD }   IC2 = { (~((~(IEN | QBBAR | QABAR)) ^ QCBAR)) & LOADBAR }   ID1 = { D & ILD }   ID2 = { ~(IEN | QCBAR | QBBAR | QABAR) }   ID3 = { LOADBAR & ((ID2 & QDBAR) | ~(ID2 | QDBAR)) }   RCO = { QD & QC & QB & QA & ENT }   DA = { IA1 | IA2 }   DB = { IB1 | IB2 }   DC = { IC1 | IC2 }   DD = { ID1 | ID3 }
.ENDS
.SUBCKT 74HC162  CLK_I ENP_I ENT_I CLRBAR_I LOADBAR_I A_I B_I C_I D_I QA_O QB_O QC_O QD_O RCO_O OPTIONAL: DPWR=_G_DPWR DGND=_G_DGND PARAMS: MNTYMXDLY=0 IO_LEVEL=0
UHC162LOG LOGICEXP(15,15) DPWR DGND CLK_I ENP_I ENT_I CLRBAR_I LOADBAR_I A_I B_I C_I D_I QA QD QABAR QBBAR QCBAR QDBAR CLK ENP ENT CLRBAR LOADBAR A B C D RCO DA DB DC DD EN D0_GATE IO_HC IO_LEVEL={IO_LEVEL} LOGIC:   CLK = { CLK_I }                        ENP = { ENP_I }   ENT = { ENT_I }   CLRBAR = { CLRBAR_I }   LOADBAR = { LOADBAR_I }   A = { A_I }   B = { B_I }   C = { C_I }   D = { D_I }   LOAD = { ~(LOADBAR | ~CLRBAR) }      LOADB = { ~(LOAD | ~CLRBAR) }   EN = { ~(ENP & ENT) }   DA = { (A & LOAD) | (LOADB & ~(QABAR ^ ~EN)) }   IB1 = { ~(EN | QABAR | QD) }   DB = { (B & LOAD) | (LOADB & ~(IB1 ^ QBBAR)) }   IC1 = { ~(EN | QABAR | QBBAR) }   DC = { (C & LOAD) | (LOADB & ~(IC1 ^ QCBAR)) }   ID1 = { ~(EN | QABAR | QBBAR | QCBAR) }   ID2 = { ~(EN | ~(QDBAR | QA)) }   DD = { (D & LOAD ) | ( LOADB & ((QDBAR & ID1) | ~(QDBAR | ID2))) }   RCO = { ENT & QA & QBBAR & QCBAR & QD }
UDFF DFF(4) DPWR DGND _D_HI _D_HI CLK DA DB DC DD QA QB QC QD QABAR QBBAR QCBAR QDBAR D0_EFF IO_HC
.ENDS
.SUBCKT 74HC163 CLK_I ENP_I ENT_I CLRBAR_I LOADBAR_I A_I B_I C_I D_I QA_O QB_O QC_O QD_O RCO_O OPTIONAL: DPWR=_G_DPWR DGND=_G_DGND PARAMS: MNTYMXDLY=0 IO_LEVEL=0
U1 DFF(4) DPWR DGND _D_HI _D_HI CLK DA DB DC DD QA QB QC QD QABAR QBBAR QCBAR QDBAR D0_EFF IO_HC
UHC163LOG LOGICEXP(17,15) DPWR DGND CLK_I ENP_I ENT_I CLRBAR_I LOADBAR_I A_I B_I C_I D_I QA QB QC QD  QABAR QBBAR QCBAR QDBAR CLK ENP ENT CLRBAR LOADBAR A B C D RCO DA DB DC DD IEN D0_GATE IO_HC IO_LEVEL={IO_LEVEL} LOGIC:   CLK = { CLK_I }   ENP = { ENP_I }   ENT = { ENT_I }   CLRBAR = { CLRBAR_I }   LOADBAR = { LOADBAR_I }   A = { A_I }   B = { B_I }   C = { C_I }   D = { D_I }   IEN = { ~(ENT & ENP) }   ILD = { ~(LOADBAR | ~CLRBAR) }   ILC = { ~(ILD | ~CLRBAR) }   IA1 = { A & ILD }   IA2 = { ~(~IEN ^ QABAR) & ILC }   IB1 = { B & ILD }   IB2 = { ~(~(IEN | QABAR) ^ QBBAR) & ILC }   IC1 = { C & ILD }   IC2 = { (~((~(IEN | QBBAR | QABAR)) ^ QCBAR)) & ILC }   IDB = { D & ILD }   IDC = { ~(IEN | QCBAR | QBBAR | QABAR) }   IDD = { ILC & ((IDC & QDBAR) | ~(IDC | QDBAR)) }   RCO = { QD & QC & QB & QA & ENT }   DA = { IA1 | IA2 }   DB = { IB1 | IB2 }   DC = { IC1 | IC2 }   DD = { IDB | IDD }
.ENDS
.SUBCKT 74HC164  CLRBAR_I CLK_I A_I B_I QA_O QB_O QC_O QD_O QE_O QF_O QG_O QH_O OPTIONAL: DPWR=_G_DPWR DGND=_G_DGND PARAMS: MNTYMXDLY=0 IO_LEVEL=0
U1 BUFA(4) DPWR DGND CLRBAR_I CLK_I A_I B_I  CLRBAR CLK A B D0_GATE IO_HC  IO_LEVEL={IO_LEVEL}
U2 AND(2) DPWR DGND A B   IN D0_GATE IO_HC 
U3 DFF(8) DPWR DGND _D_HI   CLRBAR  CLK IN      QA  QB  QC  QD  QE  QF  QG QA  QB  QC  QD  QE  QF  QG  QH _D_NC   _D_NC   _D_NC   _D_NC   _D_NC   _D_NC   _D_NC   _D_NC D0_EFF IO_HC 
.ENDS
.SUBCKT 74HC165 SH_LDBAR_I CLK_INH_I CLK_I SER_I A_I B_I C_I D_I E_I F_I G_I H_I QH_O QHBAR_O OPTIONAL: DPWR = _G_DPWR   DGND = _G_DGND PARAMS:   MNTYMXDLY = 0    IO_LEVEL = 0
UHC165LOG LOGICEXP(12,29) DPWR DGND SH_LDBAR_I CLK_INH_I CLK_I SER_I A_I B_I C_I D_I E_I F_I G_I H_I SH_LDBAR CLK_INH CLK SER A B C D E F G H SA SB SC SD SE SF SG SH RA RB RC RD RE RF RG RH CK D0_GATE  IO_HC  IO_LEVEL={IO_LEVEL} LOGIC:   SH_LDBAR = { SH_LDBAR_I }   CLK_INH = { CLK_INH_I }   CLK = { CLK_I }   SER = { SER_I }   A = { A_I }   B = { B_I }   C = { C_I }   D = { D_I }   E = { E_I }   F = { F_I }   G = { G_I }   H = { H_I }   LOAD = { ~SH_LDBAR }   SA = { ~(LOAD & A) }   SB = { ~(LOAD & B) }   SC = { ~(LOAD & C) }   SD = { ~(LOAD & D) }   SE = { ~(LOAD & E) }   SF = { ~(LOAD & F) }   SG = { ~(LOAD & G) }   SH = { ~(LOAD & H) }   RA = { ~(LOAD & SA) }   RB = { ~(LOAD & SB) }   RC = { ~(LOAD & SC) }   RD = { ~(LOAD & SD) }   RE = { ~(LOAD & SE) }   RF = { ~(LOAD & SF) }   RG = { ~(LOAD & SG) }   RH = { ~(LOAD & SH) }   CK = { CLK_INH | CLK }
U1 DFF(1) DPWR DGND SA RA CK SER QA _D_NC D0_EFF  IO_HC
U2 DFF(1) DPWR DGND SB RB CK QA QB _D_NC D0_EFF  IO_HC
U3 DFF(1) DPWR DGND SC RC CK QB QC _D_NC D0_EFF  IO_HC
U4 DFF(1) DPWR DGND SD RD CK QC QD _D_NC D0_EFF  IO_HC
U5 DFF(1) DPWR DGND SE RE CK QD QE _D_NC D0_EFF  IO_HC
U6 DFF(1) DPWR DGND SF RF CK QE QF _D_NC D0_EFF  IO_HC
U7 DFF(1) DPWR DGND SG RG CK QF QG _D_NC D0_EFF  IO_HC
U8 DFF(1) DPWR DGND SH RH CK QG QH QHBAR D0_EFF  IO_HC
.ENDS
.SUBCKT 74HC166 CLRBAR_I SH_LDBAR_I CLK_INH_I CLK_I SER_I A_I B_I C_I D_I E_I F_I G_I H_I QH_O OPTIONAL: DPWR=_G_DPWR    DGND=_G_DGND PARAMS:   MNTYMXDLY=0     IO_LEVEL=0